10
-13.534178854135 , gfn2_xtb
  C -1.26764908  0.70475974  0.00210040
  C -0.00000095 -0.11358658 -0.00000076
  C  1.26761160  0.70481783 -0.00210086
  O  0.00003684 -1.31709274  0.00000028
  H -1.39531788  1.15691893 -0.98008942
  H -1.20626167  1.50355255  0.73659666
  H -2.12546678  0.07119483  0.21044020
  H  2.12545126  0.07129479 -0.21048039
  H  1.39528850  1.15694936  0.98010165
  H  1.20617973  1.50364342 -0.73655872