10
-193.068858924334 , b973c_orca
  C -1.28088997 -0.69679485 -0.00192344
  C -0.00000006  0.09958393  0.00000610
  C  1.28088887 -0.69679666  0.00192183
  O  0.00000108  1.31440383 -0.00000153
  H -1.39438861 -1.20934273  0.95501645
  H -1.26188802 -1.47091747 -0.76925845
  H -2.13206254 -0.04199072 -0.15553571
  H  2.13206270 -0.04199771  0.15554944
  H  1.39438444 -1.20931532 -0.95503424
  H  1.26188864 -1.47094239  0.76923335