10
-14.274014508426 , gfn1_xtb
  C -1.27591473 -0.70066359 -0.00185661
  C -0.00000021  0.11002029  0.00000003
  C  1.27590537 -0.70067825  0.00185778
  O  0.00000888  1.30982324  0.00000023
  H -1.40686571 -1.14427027  0.98507024
  H -1.22161261 -1.50420248 -0.73411463
  H -2.12362795 -0.05340814 -0.21700027
  H  2.12361118 -0.05345190  0.21711856
  H  1.40691153 -1.14417164 -0.98511305
  H  1.22155652 -1.50429950  0.73402120