10
-12.95203029556 , gfn0_xtb
  C -1.26859393 -0.70253800  0.00000010
  C  0.00000000  0.11793689 -0.00000073
  C  1.26859404 -0.70253782  0.00000004
  O -0.00000011  1.30911287  0.00000018
  H -1.29749262 -1.34007791  0.88209077
  H -1.29750650 -1.34005083 -0.88210962
  H -2.13328613 -0.04105577  0.00001785
  H  2.13328618 -0.04105554 -0.00002849
  H  1.29748877 -1.34008787 -0.88208335
  H  1.29751067 -1.34004055  0.88211703